Circuit: * C:\Users\HP\Desktop\vlsi lab\project\New folder\Draft2.asc

WARNING: Less than two connections to node out.  This node is used by a1.
Direct Newton iteration for .op point succeeded.

Date: Sun Apr 20 00:06:49 2025
Total elapsed time: 0.151 seconds.

tnom = 27
temp = 27
method = modified trap
totiter = 2846
traniter = 2843
tranpoints = 1408
accept = 1320
rejected = 88
matrix size = 7
fillins = 0
solver = Normal
Avg thread counts: 1.1/1.2/1.2/1.1
Matrix Compiler1: off  [0.2]/0.4/0.4
Matrix Compiler2: off  [0.2]/0.4/0.3

